4
Properties=species:S:1:pos:R:3:forces:R:3 energy=-120.44423512318978 pbc="F F F"
N        0.03243321      -0.00000000      -0.24996568      -0.00012467       0.00000000      -0.00005135
H       -0.92100723       0.00000000      -0.59119997      -0.00015189      -0.00000000       0.00005277
H        0.49428701       0.81743296      -0.62941718       0.00013828       0.00001172      -0.00000071
H        0.49428701      -0.81743296      -0.62941718       0.00013828      -0.00001172      -0.00000071
